Uncertainty/data/case-de/case_de_98.py
from numpy import array
def case_de_98():
	ppc = {"version": '2'}
	ppc["baseMVA"] = 100.0
	ppc["bus"] = array([
		[75,     2,   93.5,     18.7,     0,      0,      5,   1.0,      0,        380.0,    0,   1.1,      0.9,      0.6, 10   ],
		[502,    2,   206.83,   41.37,    0,      0,      5,   1.0,      0,        220.0,    0,   1.1,      0.9,      0.6, 10   ],
		[44,     2,   127.47,   25.49,    0,      0,      5,   1.0,      0,        220.0,    0,   1.1,      0.9,      0.6, 10   ],
		[492,    2,   70.37,    14.07,    0,      0,      5,   1.0,      0,        220.0,    0,   1.1,      0.9,      0.6, 10   ],
		[180,    2,   40.82,    8.16,     0,      0,      5,   1.0,      0,        220.0,    0,   1.1,      0.9,      0.6, 10   ],
		[46,     1,   0,        0,        0,      0,      5,   1.0001,   0,        380.0,    0,   1.1,      0.9,      0.6, 10   ],
		[21,     2,   819.43,   163.89,   0,      0,      5,   1.0,      0,        380.0,    0,   1.1,      0.9,      0.6, 10   ],
		[33,     2,   168.7,    33.74,    0,      0,      5,   1.0,      0,        380.0,    0,   1.1,      0.9,      0.6, 10   ],
		[559,    2,   62.42,    12.48,    0,      0,      5,   1.0,      0,        220.0,    0,   1.1,      0.9,      0.6, 10   ],
		[18,     1,   0,        0,        0,      0,      5,   1.002,    0,        380.0,    0,   1.1,      0.9,      0.6, 10   ],
		[73,     2,   75.02,    15.0,     0,      0,      5,   1.0,      0,        380.0,    0,   1.1,      0.9,      0.6, 10   ],
		[503,    2,   63.35,    12.67,    0,      0,      5,   1.0,      0,        220.0,    0,   1.1,      0.9,      0.6, 10   ],
		[511,    2,   92.74,    18.55,    0,      0,      5,   1.0,      0,        220.0,    0,   1.1,      0.9,      0.6, 10   ],
		[72,     2,   234.34,   46.87,    0,      0,      5,   1.0,      0,        380.0,    0,   1.1,      0.9,      0.6, 10   ],
		[288,    2,   54.76,    10.95,    0,      0,      5,   1.0,      0,        380.0,    0,   1.1,      0.9,      0.6, 10   ],
		[339,    2,   136.77,   27.35,    0,      0,      5,   1.0,      0,        220.0,    0,   1.1,      0.9,      0.6, 10   ],
		[321,    2,   176.38,   35.28,    0,      0,      5,   1.0,      0,        220.0,    0,   1.1,      0.9,      0.6, 10   ],
		[8,      2,   135.5,    27.1,     0,      0,      5,   1.0,      0,        380.0,    0,   1.1,      0.9,      0.6, 10   ],
		[292,    2,   111.74,   22.35,    0,      0,      5,   1.0,      0,        380.0,    0,   1.1,      0.9,      0.6, 10   ],
		[343,    2,   99.49,    19.9,     0,      0,      5,   1.0,      0,        220.0,    0,   1.1,      0.9,      0.6, 10   ],
		[12,     1,   0,        0,        0,      0,      5,   1.0006,   0,        380.0,    0,   1.1,      0.9,      0.6, 10   ],
		[340,    2,   115.64,   23.13,    0,      0,      5,   1.0,      0,        220.0,    0,   1.1,      0.9,      0.6, 10   ],
		[177,    2,   23.8,     4.76,     0,      0,      5,   1.0,      0,        220.0,    0,   1.1,      0.9,      0.6, 10   ],
		[497,    2,   864.26,   172.85,   0,      0,      5,   1.0,      0,        220.0,    0,   1.1,      0.9,      0.6, 10   ],
		[102,    2,   125.38,   25.08,    0,      0,      5,   1.0,      0,        380.0,    0,   1.1,      0.9,      0.6, 10   ],
		[311,    2,   172.34,   34.47,    0,      0,      5,   1.0,      0,        380.0,    0,   1.1,      0.9,      0.6, 10   ],
		[429,    2,   294.99,   59.0,     0,      0,      5,   1.0,      0,        220.0,    0,   1.1,      0.9,      0.6, 10   ],
		[32,     1,   0,        0,        0,      0,      5,   0.9981,   0,        380.0,    0,   1.1,      0.9,      0.6, 10   ],
		[22,     1,   0,        0,        0,      0,      5,   0.9998,   0,        380.0,    0,   1.1,      0.9,      0.6, 10   ],
		[101,    2,   64.78,    12.96,    0,      0,      5,   1.0,      0,        380.0,    0,   1.1,      0.9,      0.6, 10   ],
		[71,     2,   143.08,   28.62,    0,      0,      5,   1.0,      0,        380.0,    0,   1.1,      0.9,      0.6, 10   ],
		[558,    2,   116.64,   23.33,    0,      0,      5,   1.0,      0,        220.0,    0,   1.1,      0.9,      0.6, 10   ],
		[217,    2,   35.29,    7.06,     0,      0,      5,   1.0,      0,        380.0,    0,   1.1,      0.9,      0.6, 10   ],
		[322,    2,   22.45,    4.49,     0,      0,      5,   1.0,      0,        380.0,    0,   1.1,      0.9,      0.6, 10   ],
		[278,    2,   130.48,   26.1,     0,      0,      5,   1.0,      0,        380.0,    0,   1.1,      0.9,      0.6, 10   ],
		[498,    2,   40.53,    8.11,     0,      0,      5,   1.0,      0,        220.0,    0,   1.1,      0.9,      0.6, 10   ],
		[47,     2,   294.22,   58.84,    0,      0,      5,   1.0,      0,        380.0,    0,   1.1,      0.9,      0.6, 10   ],
		[346,    2,   270.77,   54.15,    0,      0,      5,   1.0,      0,        380.0,    0,   1.1,      0.9,      0.6, 10   ],
		[74,     1,   0,        0,        0,      0,      5,   1.0012,   0,        380.0,    0,   1.1,      0.9,      0.6, 10   ],
		[557,    2,   197.8,    39.56,    0,      0,      5,   1.0,      0,        220.0,    0,   1.1,      0.9,      0.6, 10   ],
		[42,     1,   0,        0,        0,      0,      5,   1.0014,   0,        380.0,    0,   1.1,      0.9,      0.6, 10   ],
		[39,     3,   57.88,    11.58,    0,      0,      5,   1.0,      0,        380.0,    0,   1.1,      0.9,      0.6, 10   ],
		[45,     2,   67.67,    13.53,    0,      0,      5,   1.0,      0,        220.0,    0,   1.1,      0.9,      0.6, 10   ],
		[493,    2,   90.69,    18.14,    0,      0,      5,   1.0,      0,        220.0,    0,   1.1,      0.9,      0.6, 10   ],
		[98,     2,   91.48,    18.3,     0,      0,      5,   1.0,      0,        380.0,    0,   1.1,      0.9,      0.6, 10   ],
		[435,    2,   130.69,   26.14,    0,      0,      5,   1.0,      0,        380.0,    0,   1.1,      0.9,      0.6, 10   ],
		[338,    2,   221.14,   44.23,    0,      0,      5,   1.0,      0,        220.0,    0,   1.1,      0.9,      0.6, 10   ],
		[79,     2,   90.26,    18.05,    0,      0,      5,   1.0,      0,        380.0,    0,   1.1,      0.9,      0.6, 10   ],
		[78,     1,   0,        0,        0,      0,      5,   0.9975,   0,        380.0,    0,   1.1,      0.9,      0.6, 10   ],
		[512,    2,   61.26,    12.25,    0,      0,      5,   1.0,      0,        220.0,    0,   1.1,      0.9,      0.6, 10   ],
		[276,    2,   167.14,   33.43,    0,      0,      5,   1.0,      0,        220.0,    0,   1.1,      0.9,      0.6, 10   ],
		[569,    2,   161.86,   32.37,    0,      0,      5,   1.0,      0,        220.0,    0,   1.1,      0.9,      0.6, 10   ],
		[37,     1,   0,        0,        0,      0,      5,   1.0021,   0,        380.0,    0,   1.1,      0.9,      0.6, 10   ],
		[179,    2,   46.44,    9.29,     0,      0,      5,   1.0,      0,        220.0,    0,   1.1,      0.9,      0.6, 10   ],
		[325,    2,   134.53,   26.91,    0,      0,      5,   1.0,      0,        380.0,    0,   1.1,      0.9,      0.6, 10   ],
		[20,     1,   0,        0,        0,      0,      5,   0.9972,   0,        380.0,    0,   1.1,      0.9,      0.6, 10   ],
		[496,    2,   6.91,     1.38,     0,      0,      5,   1.0,      0,        220.0,    0,   1.1,      0.9,      0.6, 10   ],
		[279,    1,   0,        0,        0,      0,      5,   0.999,    0,        380.0,    0,   1.1,      0.9,      0.6, 10   ],
		[436,    2,   69.77,    13.95,    0,      0,      5,   1.0,      0,        380.0,    0,   1.1,      0.9,      0.6, 10   ],
		[345,    2,   272.75,   54.55,    0,      0,      5,   1.0,      0,        380.0,    0,   1.1,      0.9,      0.6, 10   ],
		[505,    2,   294.22,   58.84,    0,      0,      5,   1.0,      0,        220.0,    0,   1.1,      0.9,      0.6, 10   ],
		[290,    1,   0,        0,        0,      0,      5,   1.004,    0,        380.0,    0,   1.1,      0.9,      0.6, 10   ],
		[363,    2,   276.01,   55.2,     0,      0,      5,   1.0,      0,        380.0,    0,   1.1,      0.9,      0.6, 10   ],
		[11,     2,   80.29,    16.06,    0,      0,      5,   1.0,      0,        220.0,    0,   1.1,      0.9,      0.6, 10   ],
		[277,    1,   0,        0,        0,      0,      5,   0.9988,   0,        380.0,    0,   1.1,      0.9,      0.6, 10   ],
		[441,    2,   51.44,    10.29,    0,      0,      5,   1.0,      0,        220.0,    0,   1.1,      0.9,      0.6, 10   ],
		[280,    1,   0,        0,        0,      0,      5,   0.9992,   0,        380.0,    0,   1.1,      0.9,      0.6, 10   ],
		[504,    2,   41.48,    8.3,      0,      0,      5,   1.0,      0,        220.0,    0,   1.1,      0.9,      0.6, 10   ],
		[181,    2,   30.81,    6.16,     0,      0,      5,   1.0,      0,        220.0,    0,   1.1,      0.9,      0.6, 10   ],
		[291,    2,   56.68,    11.34,    0,      0,      5,   1.0,      0,        220.0,    0,   1.1,      0.9,      0.6, 10   ],
		[344,    2,   249.44,   49.89,    0,      0,      5,   1.0,      0,        380.0,    0,   1.1,      0.9,      0.6, 10   ],
		[40,     2,   60.45,    12.09,    0,      0,      5,   1.0,      0,        380.0,    0,   1.1,      0.9,      0.6, 10   ],
		[80,     2,   95.87,    19.17,    0,      0,      5,   1.0,      0,        380.0,    0,   1.1,      0.9,      0.6, 10   ],
		[183,    2,   417.82,   83.56,    0,      0,      5,   1.0,      0,        380.0,    0,   1.1,      0.9,      0.6, 10   ],
		[440,    2,   67.1,     13.42,    0,      0,      5,   1.0,      0,        220.0,    0,   1.1,      0.9,      0.6, 10   ],
		[43,     2,   99.64,    19.93,    0,      0,      5,   1.0,      0,        220.0,    0,   1.1,      0.9,      0.6, 10   ],
		[10,     1,   0,        0,        0,      0,      5,   0.9995,   0,        380.0,    0,   1.1,      0.9,      0.6, 10   ],
		[81,     2,   108.23,   21.65,    0,      0,      5,   1.0,      0,        380.0,    0,   1.1,      0.9,      0.6, 10   ],
		[560,    2,   97.52,    19.5,     0,      0,      5,   1.0,      0,        220.0,    0,   1.1,      0.9,      0.6, 10   ],
		[341,    2,   104.54,   20.91,    0,      0,      5,   1.0,      0,        380.0,    0,   1.1,      0.9,      0.6, 10   ],
		[17,     2,   77.13,    15.43,    0,      0,      5,   1.0,      0,        380.0,    0,   1.1,      0.9,      0.6, 10   ],
		[41,     2,   64.97,    12.99,    0,      0,      5,   1.0,      0,        380.0,    0,   1.1,      0.9,      0.6, 10   ],
		[192,    2,   48.96,    9.79,     0,      0,      0,   1.0,      0,        220.0,    0,   1.1,      0.9,      0.6, 10   ],
		[342,    2,   181.34,   36.27,    0,      0,      0,   1.0,      0,        220.0,    0,   1.1,      0.9,      0.6, 10   ],
		[218,    2,   107.52,   21.5,     0,      0,      0,   1.0,      0,        220.0,    0,   1.1,      0.9,      0.6, 10   ],
		[65,     2,   4.78,     0.96,     0,      0,      0,   1.0,      0,        380.0,    0,   1.1,      0.9,      0.6, 10   ],
		[289,    2,   86.12,    17.22,    0,      0,      0,   1.0,      0,        380.0,    0,   1.1,      0.9,      0.6, 10   ],
		[324,    2,   412.97,   82.59,    0,      0,      0,   1.0,      0,        380.0,    0,   1.1,      0.9,      0.6, 10   ],
		[48,     2,   202.24,   40.45,    0,      0,      0,   1.0,      0,        380.0,    0,   1.1,      0.9,      0.6, 10   ],
		[332,    1,   0,        0,        0,      0,      0,   0.9973,   0,        380.0,    0,   1.1,      0.9,      0.6, 10   ],
		[422,    2,   67.33,    13.47,    0,      0,      0,   1.0,      0,        380.0,    0,   1.1,      0.9,      0.6, 10   ],
		[23,     2,   107.29,   21.46,    0,      0,      0,   1.0,      0,        220.0,    0,   1.1,      0.9,      0.6, 10   ],
		[570,    2,   252.69,   50.54,    0,      0,      0,   1.0,      0,        220.0,    0,   1.1,      0.9,      0.6, 10   ],
		[38,     2,   176.75,   35.35,    0,      0,      0,   1.0,      0,        380.0,    0,   1.1,      0.9,      0.6, 10   ],
		[31,     2,   134.55,   26.91,    0,      0,      0,   1.0,      0,        380.0,    0,   1.1,      0.9,      0.6, 10   ],
		[49,     2,   51.16,    10.23,    0,      0,      0,   1.0,      0,        380.0,    0,   1.1,      0.9,      0.6, 10   ],
		[182,    2,   1.4,      0.28,     0,      0,      0,   1.0,      0,        220.0,    0,   1.1,      0.9,      0.6, 10   ],
		[9,      2,   91.63,    18.33,    0,      0,      0,   1.0,      0,        380.0,    0,   1.1,      0.9,      0.6, 10   ],
		[323,    2,   2.34,     0.47,     0,      0,      0,   1.0,      0,        380.0,    0,   1.1,      0.9,      0.6, 10   ],
		[400,    2,   48.98,    9.8,      0,      0,      0,   1.0,      0,        220.0,    0,   1.1,      0.9,      0.6, 10   ],
		[30,     1,   0,        0,        0,      0,      0,   0.9989,   0,        380.0,    0,   1.1,      0.9,      0.6, 10   ],
		[25,     2,   51.32,    10.26,    0,      0,      0,   1.0,      0,        380.0,    0,   1.1,      0.9,      0.6, 10   ]
	])
	ppc["gen"] = array([
		[102,    0.0,      0,        33.95,    -8.49,    1.0,      100,    1,   67.9,     0.0,      0, 0, 0, 0, 0, 0, 0, 0, 0, 0, 0, 0,   0.95,   101.85,   13.58,    20.37,    20.37,    27.16     ],
		[493,    0.0,      0,        75.0,     -18.75,   1.0,      100,    1,   150.0,    0.0,      0, 0, 0, 0, 0, 0, 0, 0, 0, 0, 0, 0,   0.95,   225.0,    30.0,     45.0,     45.0,     60.0      ],
		[493,    30.0,     0,        15.0,     -3.75,    1.0,      100,    1,   30.0,     0.0,      0, 0, 0, 0, 0, 0, 0, 0, 0, 0, 0, 0,   0.95,   45.0,     6.0,      9.0,      9.0,      12.0      ],
		[177,    0.0,      0,        16.35,    -4.09,    1.0,      100,    1,   32.7,     0.0,      0, 0, 0, 0, 0, 0, 0, 0, 0, 0, 0, 0,   0.95,   49.05,    6.54,     9.81,     9.81,     13.08     ],
		[180,    0.0,      0,        12.7,     -3.18,    1.0,      100,    1,   25.4,     0.0,      0, 0, 0, 0, 0, 0, 0, 0, 0, 0, 0, 0,   0.95,   38.1,     5.08,     7.62,     7.62,     10.16     ],
		[180,    0.0,      0,        166.75,   -41.69,   1.0,      100,    1,   333.5,    0.0,      0, 0, 0, 0, 0, 0, 0, 0, 0, 0, 0, 0,   0.95,   500.25,   66.7,     100.05,   100.05,   133.4     ],
		[180,    28.9,     0,        14.45,    -3.61,    1.0,      100,    1,   28.9,     0.0,      0, 0, 0, 0, 0, 0, 0, 0, 0, 0, 0, 0,   0.95,   43.35,    5.78,     8.67,     8.67,     11.56     ],
		[183,    0.0,      0,        11.25,    -2.81,    1.0,      100,    1,   22.5,     0.0,      0, 0, 0, 0, 0, 0, 0, 0, 0, 0, 0, 0,   0.95,   33.75,    4.5,      6.75,     6.75,     9.0       ],
		[183,    0.0,      0,        383.0,    -95.75,   1.0,      100,    1,   766.0,    0.0,      0, 0, 0, 0, 0, 0, 0, 0, 0, 0, 0, 0,   0.95,   1149.0,   153.2,    229.8,    229.8,    306.4     ],
		[183,    0.0,      0,        19.0,     -4.75,    1.0,      100,    1,   38.0,     0.0,      0, 0, 0, 0, 0, 0, 0, 0, 0, 0, 0, 0,   0.95,   57.0,     7.6,      11.4,     11.4,     15.2      ],
		[183,    24.0,     0,        12.0,     -3.0,     1.0,      100,    1,   24.0,     0.0,      0, 0, 0, 0, 0, 0, 0, 0, 0, 0, 0, 0,   0.95,   36.0,     4.8,      7.2,      7.2,      9.6       ],
		[496,    0.0,      0,        26.4,     -6.6,     1.0,      100,    1,   52.8,     0.0,      0, 0, 0, 0, 0, 0, 0, 0, 0, 0, 0, 0,   0.95,   79.2,     10.56,    15.84,    15.84,    21.12     ],
		[21,     0.0,      0,        63.5,     -15.88,   1.0,      100,    1,   127.0,    0.0,      0, 0, 0, 0, 0, 0, 0, 0, 0, 0, 0, 0,   0.95,   190.5,    25.4,     38.1,     38.1,     50.8      ],
		[21,     0.0,      0,        97.0,     -24.25,   1.0,      100,    1,   194.0,    0.0,      0, 0, 0, 0, 0, 0, 0, 0, 0, 0, 0, 0,   0.95,   291.0,    38.8,     58.2,     58.2,     77.6      ],
		[21,     16.4,     0,        8.2,      -2.05,    1.0,      100,    1,   16.4,     0.0,      0, 0, 0, 0, 0, 0, 0, 0, 0, 0, 0, 0,   0.95,   24.6,     3.28,     4.92,     4.92,     6.56      ],
		[217,    0.0,      0,        54.0,     -13.5,    1.0,      100,    1,   108.0,    0.0,      0, 0, 0, 0, 0, 0, 0, 0, 0, 0, 0, 0,   0.95,   162.0,    21.6,     32.4,     32.4,     43.2      ],
		[217,    508.0,    0,        254.0,    -63.5,    1.0,      100,    1,   508.0,    0.0,      0, 0, 0, 0, 0, 0, 0, 0, 0, 0, 0, 0,   0.95,   762.0,    101.6,    152.4,    152.4,    203.2     ],
		[217,    17.0,     0,        8.5,      -2.12,    1.0,      100,    1,   17.0,     0.0,      0, 0, 0, 0, 0, 0, 0, 0, 0, 0, 0, 0,   0.95,   25.5,     3.4,      5.1,      5.1,      6.8       ],
		[498,    0.0,      0,        149.25,   -37.31,   1.0,      100,    1,   298.5,    0.0,      0, 0, 0, 0, 0, 0, 0, 0, 0, 0, 0, 0,   0.95,   447.75,   59.7,     89.55,    89.55,    119.4     ],
		[557,    90.8,     0,        45.4,     -11.35,   1.0,      100,    1,   90.8,     0.0,      0, 0, 0, 0, 0, 0, 0, 0, 0, 0, 0, 0,   0.95,   136.2,    18.16,    27.24,    27.24,    36.32     ],
		[558,    0.0,      0,        37.0,     -9.25,    1.0,      100,    1,   74.0,     0.0,      0, 0, 0, 0, 0, 0, 0, 0, 0, 0, 0, 0,   0.95,   111.0,    14.8,     22.2,     22.2,     29.6      ],
		[559,    0.0,      0,        8.5,      -2.12,    1.0,      100,    1,   17.0,     0.0,      0, 0, 0, 0, 0, 0, 0, 0, 0, 0, 0, 0,   0.95,   25.5,     3.4,      5.1,      5.1,      6.8       ],
		[288,    0.0,      0,        7.85,     -1.96,    1.0,      100,    1,   15.7,     0.0,      0, 0, 0, 0, 0, 0, 0, 0, 0, 0, 0, 0,   0.95,   23.55,    3.14,     4.71,     4.71,     6.28      ],
		[289,    984.79,   0,        552.5,    -138.12,  1.0,      100,    1,   1105.0,   0.0,      0, 0, 0, 0, 0, 0, 0, 0, 0, 0, 0, 0,   0.95,   1657.5,   221.0,    331.5,    331.5,    442.0     ],
		[560,    20.3,     0,        10.15,    -2.54,    1.0,      100,    1,   20.3,     0.0,      0, 0, 0, 0, 0, 0, 0, 0, 0, 0, 0, 0,   0.95,   30.45,    4.06,     6.09,     6.09,     8.12      ],
		[560,    0.0,      0,        108.0,    -27.0,    1.0,      100,    1,   216.0,    0.0,      0, 0, 0, 0, 0, 0, 0, 0, 0, 0, 0, 0,   0.95,   324.0,    43.2,     64.8,     64.8,     86.4      ],
		[560,    59.0,     0,        29.5,     -7.38,    1.0,      100,    1,   59.0,     0.0,      0, 0, 0, 0, 0, 0, 0, 0, 0, 0, 0, 0,   0.95,   88.5,     11.8,     17.7,     17.7,     23.6      ],
		[292,    0.0,      0,        6.75,     -1.69,    1.0,      100,    1,   13.5,     0.0,      0, 0, 0, 0, 0, 0, 0, 0, 0, 0, 0, 0,   0.95,   20.25,    2.7,      4.05,     4.05,     5.4       ],
		[292,    11.2,     0,        5.6,      -1.4,     1.0,      100,    1,   11.2,     0.0,      0, 0, 0, 0, 0, 0, 0, 0, 0, 0, 0, 0,   0.95,   16.8,     2.24,     3.36,     3.36,     4.48      ],
		[31,     0.0,      0,        97.7,     -24.42,   1.0,      100,    1,   195.4,    0.0,      0, 0, 0, 0, 0, 0, 0, 0, 0, 0, 0, 0,   0.95,   293.1,    39.08,    58.62,    58.62,    78.16     ],
		[311,    875.0,    0,        437.5,    -109.38,  1.0,      100,    1,   875.0,    0.0,      0, 0, 0, 0, 0, 0, 0, 0, 0, 0, 0, 0,   0.95,   1312.5,   175.0,    262.5,    262.5,    350.0     ],
		[321,    0.0,      0,        6.45,     -1.61,    1.0,      100,    1,   12.9,     0.0,      0, 0, 0, 0, 0, 0, 0, 0, 0, 0, 0, 0,   0.95,   19.35,    2.58,     3.87,     3.87,     5.16      ],
		[324,    24.21,    0,        159.9,    -39.98,   1.0,      100,    1,   319.8,    0.0,      0, 0, 0, 0, 0, 0, 0, 0, 0, 0, 0, 0,   0.95,   479.7,    63.96,    95.94,    95.94,    127.92    ],
		[325,    0.0,      0,        13.45,    -3.36,    1.0,      100,    1,   26.9,     0.0,      0, 0, 0, 0, 0, 0, 0, 0, 0, 0, 0, 0,   0.95,   40.35,    5.38,     8.07,     8.07,     10.76     ],
		[502,    0.0,      0,        54.55,    -13.64,   1.0,      100,    1,   109.1,    0.0,      0, 0, 0, 0, 0, 0, 0, 0, 0, 0, 0, 0,   0.95,   163.65,   21.82,    32.73,    32.73,    43.64     ],
		[33,     0.0,      0,        15.9,     -3.98,    1.0,      100,    1,   31.8,     0.0,      0, 0, 0, 0, 0, 0, 0, 0, 0, 0, 0, 0,   0.95,   47.7,     6.36,     9.54,     9.54,     12.72     ],
		[570,    0.0,      0,        26.4,     -6.6,     1.0,      100,    1,   52.8,     0.0,      0, 0, 0, 0, 0, 0, 0, 0, 0, 0, 0, 0,   0.95,   79.2,     10.56,    15.84,    15.84,    21.12     ],
		[570,    89.0,     0,        44.5,     -11.12,   1.0,      100,    1,   89.0,     0.0,      0, 0, 0, 0, 0, 0, 0, 0, 0, 0, 0, 0,   0.95,   133.5,    17.8,     26.7,     26.7,     35.6      ],
		[338,    0.0,      0,        149.8,    -37.45,   1.0,      100,    1,   299.6,    0.0,      0, 0, 0, 0, 0, 0, 0, 0, 0, 0, 0, 0,   0.95,   449.4,    59.92,    89.88,    89.88,    119.84    ],
		[338,    82.5,     0,        41.25,    -10.31,   1.0,      100,    1,   82.5,     0.0,      0, 0, 0, 0, 0, 0, 0, 0, 0, 0, 0, 0,   0.95,   123.75,   16.5,     24.75,    24.75,    33.0      ],
		[339,    134.0,    0,        67.0,     -16.75,   1.0,      100,    1,   134.0,    0.0,      0, 0, 0, 0, 0, 0, 0, 0, 0, 0, 0, 0,   0.95,   201.0,    26.8,     40.2,     40.2,     53.6      ],
		[339,    0.0,      0,        79.5,     -19.88,   1.0,      100,    1,   159.0,    0.0,      0, 0, 0, 0, 0, 0, 0, 0, 0, 0, 0, 0,   0.95,   238.5,    31.8,     47.7,     47.7,     63.6      ],
		[339,    0.0,      0,        55.5,     -13.88,   1.0,      100,    1,   111.0,    0.0,      0, 0, 0, 0, 0, 0, 0, 0, 0, 0, 0, 0,   0.95,   166.5,    22.2,     33.3,     33.3,     44.4      ],
		[339,    0.0,      0,        21.35,    -5.34,    1.0,      100,    1,   42.7,     0.0,      0, 0, 0, 0, 0, 0, 0, 0, 0, 0, 0, 0,   0.95,   64.05,    8.54,     12.81,    12.81,    17.08     ],
		[339,    58.0,     0,        29.0,     -7.25,    1.0,      100,    1,   58.0,     0.0,      0, 0, 0, 0, 0, 0, 0, 0, 0, 0, 0, 0,   0.95,   87.0,     11.6,     17.4,     17.4,     23.2      ],
		[340,    0.0,      0,        9.75,     -2.44,    1.0,      100,    1,   19.5,     0.0,      0, 0, 0, 0, 0, 0, 0, 0, 0, 0, 0, 0,   0.95,   29.25,    3.9,      5.85,     5.85,     7.8       ],
		[342,    0.0,      0,        34.98,    -8.74,    1.0,      100,    1,   69.95,    0.0,      0, 0, 0, 0, 0, 0, 0, 0, 0, 0, 0, 0,   0.95,   104.93,   13.99,    20.98,    20.98,    27.98     ],
		[345,    0.0,      0,        105.5,    -26.38,   1.0,      100,    1,   211.0,    0.0,      0, 0, 0, 0, 0, 0, 0, 0, 0, 0, 0, 0,   0.95,   316.5,    42.2,     63.3,     63.3,     84.4      ],
		[345,    89.0,     0,        44.5,     -11.12,   1.0,      100,    1,   89.0,     0.0,      0, 0, 0, 0, 0, 0, 0, 0, 0, 0, 0, 0,   0.95,   133.5,    17.8,     26.7,     26.7,     35.6      ],
		[345,    0.0,      0,        163.5,    -40.88,   1.0,      100,    1,   327.0,    0.0,      0, 0, 0, 0, 0, 0, 0, 0, 0, 0, 0, 0,   0.95,   490.5,    65.4,     98.1,     98.1,     130.8     ],
		[346,    0.0,      0,        229.45,   -57.36,   1.0,      100,    1,   458.9,    0.0,      0, 0, 0, 0, 0, 0, 0, 0, 0, 0, 0, 0,   0.95,   688.35,   91.78,    137.67,   137.67,   183.56    ],
		[363,    0.0,      0,        40.9,     -10.22,   1.0,      100,    1,   81.8,     0.0,      0, 0, 0, 0, 0, 0, 0, 0, 0, 0, 0, 0,   0.95,   122.7,    16.36,    24.54,    24.54,    32.72     ],
		[363,    639.54,   0,        344.0,    -86.0,    1.0,      100,    1,   688.0,    0.0,      0, 0, 0, 0, 0, 0, 0, 0, 0, 0, 0, 0,   0.95,   1032.0,   137.6,    206.4,    206.4,    275.2     ],
		[363,    36.0,     0,        18.0,     -4.5,     1.0,      100,    1,   36.0,     0.0,      0, 0, 0, 0, 0, 0, 0, 0, 0, 0, 0, 0,   0.95,   54.0,     7.2,      10.8,     10.8,     14.4      ],
		[503,    0.0,      0,        26.0,     -6.5,     1.0,      100,    1,   52.0,     0.0,      0, 0, 0, 0, 0, 0, 0, 0, 0, 0, 0, 0,   0.95,   78.0,     10.4,     15.6,     15.6,     20.8      ],
		[503,    1360.0,   0,        680.0,    -170.0,   1.0,      100,    1,   1360.0,   0.0,      0, 0, 0, 0, 0, 0, 0, 0, 0, 0, 0, 0,   0.95,   2040.0,   272.0,    408.0,    408.0,    544.0     ],
		[503,    58.4,     0,        29.2,     -7.3,     1.0,      100,    1,   58.4,     0.0,      0, 0, 0, 0, 0, 0, 0, 0, 0, 0, 0, 0,   0.95,   87.6,     11.68,    17.52,    17.52,    23.36     ],
		[39,     0.0,      0,        1149.65,  -287.41,  1.0,      100,    1,   2299.3,   0.0,      0, 0, 0, 0, 0, 0, 0, 0, 0, 0, 0, 0,   0.95,   3448.95,  459.86,   689.79,   689.79,   919.72    ],
		[40,     48.0,     0,        24.0,     -6.0,     1.0,      100,    1,   48.0,     0.0,      0, 0, 0, 0, 0, 0, 0, 0, 0, 0, 0, 0,   0.95,   72.0,     9.6,      14.4,     14.4,     19.2      ],
		[400,    0.0,      0,        44.0,     -11.0,    1.0,      100,    1,   88.0,     0.0,      0, 0, 0, 0, 0, 0, 0, 0, 0, 0, 0, 0,   0.95,   132.0,    17.6,     26.4,     26.4,     35.2      ],
		[400,    0.0,      0,        30.0,     -7.5,     1.0,      100,    1,   60.0,     0.0,      0, 0, 0, 0, 0, 0, 0, 0, 0, 0, 0, 0,   0.95,   90.0,     12.0,     18.0,     18.0,     24.0      ],
		[400,    0.0,      0,        79.0,     -19.75,   1.0,      100,    1,   158.0,    0.0,      0, 0, 0, 0, 0, 0, 0, 0, 0, 0, 0, 0,   0.95,   237.0,    31.6,     47.4,     47.4,     63.2      ],
		[422,    74.0,     0,        37.0,     -9.25,    1.0,      100,    1,   74.0,     0.0,      0, 0, 0, 0, 0, 0, 0, 0, 0, 0, 0, 0,   0.95,   111.0,    14.8,     22.2,     22.2,     29.6      ],
		[43,     0.0,      0,        98.0,     -24.5,    1.0,      100,    1,   196.0,    0.0,      0, 0, 0, 0, 0, 0, 0, 0, 0, 0, 0, 0,   0.95,   294.0,    39.2,     58.8,     58.8,     78.4      ],
		[43,     17.0,     0,        8.5,      -2.12,    1.0,      100,    1,   17.0,     0.0,      0, 0, 0, 0, 0, 0, 0, 0, 0, 0, 0, 0,   0.95,   25.5,     3.4,      5.1,      5.1,      6.8       ],
		[429,    164.0,    0,        82.0,     -20.5,    1.0,      100,    1,   164.0,    0.0,      0, 0, 0, 0, 0, 0, 0, 0, 0, 0, 0, 0,   0.95,   246.0,    32.8,     49.2,     49.2,     65.6      ],
		[44,     26.0,     0,        13.0,     -3.25,    1.0,      100,    1,   26.0,     0.0,      0, 0, 0, 0, 0, 0, 0, 0, 0, 0, 0, 0,   0.95,   39.0,     5.2,      7.8,      7.8,      10.4      ],
		[435,    0.0,      0,        91.0,     -22.75,   1.0,      100,    1,   182.0,    0.0,      0, 0, 0, 0, 0, 0, 0, 0, 0, 0, 0, 0,   0.95,   273.0,    36.4,     54.6,     54.6,     72.8      ],
		[435,    61.5,     0,        30.75,    -7.69,    1.0,      100,    1,   61.5,     0.0,      0, 0, 0, 0, 0, 0, 0, 0, 0, 0, 0, 0,   0.95,   92.25,    12.3,     18.45,    18.45,    24.6      ],
		[436,    0.0,      0,        13.25,    -3.31,    1.0,      100,    1,   26.5,     0.0,      0, 0, 0, 0, 0, 0, 0, 0, 0, 0, 0, 0,   0.95,   39.75,    5.3,      7.95,     7.95,     10.6      ],
		[440,    0.0,      0,        7.35,     -1.84,    1.0,      100,    1,   14.7,     0.0,      0, 0, 0, 0, 0, 0, 0, 0, 0, 0, 0, 0,   0.95,   22.05,    2.94,     4.41,     4.41,     5.88      ],
		[441,    0.0,      0,        37.5,     -9.38,    1.0,      100,    1,   75.0,     0.0,      0, 0, 0, 0, 0, 0, 0, 0, 0, 0, 0, 0,   0.95,   112.5,    15.0,     22.5,     22.5,     30.0      ],
		[45,     0.0,      0,        148.0,    -37.0,    1.0,      100,    1,   296.0,    0.0,      0, 0, 0, 0, 0, 0, 0, 0, 0, 0, 0, 0,   0.95,   444.0,    59.2,     88.8,     88.8,     118.4     ],
		[45,     0.0,      0,        11.55,    -2.89,    1.0,      100,    1,   23.1,     0.0,      0, 0, 0, 0, 0, 0, 0, 0, 0, 0, 0, 0,   0.95,   34.65,    4.62,     6.93,     6.93,     9.24      ],
		[47,     0.0,      0,        222.0,    -55.5,    1.0,      100,    1,   444.0,    0.0,      0, 0, 0, 0, 0, 0, 0, 0, 0, 0, 0, 0,   0.95,   666.0,    88.8,     133.2,    133.2,    177.6     ],
		[47,     31.7,     0,        15.85,    -3.96,    1.0,      100,    1,   31.7,     0.0,      0, 0, 0, 0, 0, 0, 0, 0, 0, 0, 0, 0,   0.95,   47.55,    6.34,     9.51,     9.51,     12.68     ],
		[49,     352.0,    0,        176.0,    -44.0,    1.0,      100,    1,   352.0,    0.0,      0, 0, 0, 0, 0, 0, 0, 0, 0, 0, 0, 0,   0.95,   528.0,    70.4,     105.6,    105.6,    140.8     ],
		[49,     66.0,     0,        33.0,     -8.25,    1.0,      100,    1,   66.0,     0.0,      0, 0, 0, 0, 0, 0, 0, 0, 0, 0, 0, 0,   0.95,   99.0,     13.2,     19.8,     19.8,     26.4      ],
		[49,     37.5,     0,        18.75,    -4.69,    1.0,      100,    1,   37.5,     0.0,      0, 0, 0, 0, 0, 0, 0, 0, 0, 0, 0, 0,   0.95,   56.25,    7.5,      11.25,    11.25,    15.0      ],
		[65,     164.5,    0,        82.25,    -20.56,   1.0,      100,    1,   164.5,    0.0,      0, 0, 0, 0, 0, 0, 0, 0, 0, 0, 0, 0,   0.95,   246.75,   32.9,     49.35,    49.35,    65.8      ],
		[71,     49.0,     0,        24.5,     -6.12,    1.0,      100,    1,   49.0,     0.0,      0, 0, 0, 0, 0, 0, 0, 0, 0, 0, 0, 0,   0.95,   73.5,     9.8,      14.7,     14.7,     19.6      ],
		[71,     0.0,      0,        80.55,    -20.14,   1.0,      100,    1,   161.1,    0.0,      0, 0, 0, 0, 0, 0, 0, 0, 0, 0, 0, 0,   0.95,   241.65,   32.22,    48.33,    48.33,    64.44     ],
		[71,     9.9,      0,        4.95,     -1.24,    1.0,      100,    1,   9.9,      0.0,      0, 0, 0, 0, 0, 0, 0, 0, 0, 0, 0, 0,   0.95,   14.85,    1.98,     2.97,     2.97,     3.96      ],
		[72,     900.0,    0,        450.0,    -112.5,   1.0,      100,    1,   900.0,    0.0,      0, 0, 0, 0, 0, 0, 0, 0, 0, 0, 0, 0,   0.95,   1350.0,   180.0,    270.0,    270.0,    360.0     ],
		[72,     0.0,      0,        75.5,     -18.88,   1.0,      100,    1,   151.0,    0.0,      0, 0, 0, 0, 0, 0, 0, 0, 0, 0, 0, 0,   0.95,   226.5,    30.2,     45.3,     45.3,     60.4      ],
		[72,     0.0,      0,        60.0,     -15.0,    1.0,      100,    1,   120.0,    0.0,      0, 0, 0, 0, 0, 0, 0, 0, 0, 0, 0, 0,   0.95,   180.0,    24.0,     36.0,     36.0,     48.0      ],
		[511,    0.0,      0,        61.0,     -15.25,   1.0,      100,    1,   122.0,    0.0,      0, 0, 0, 0, 0, 0, 0, 0, 0, 0, 0, 0,   0.95,   183.0,    24.4,     36.6,     36.6,     48.8      ],
		[511,    23.3,     0,        11.65,    -2.91,    1.0,      100,    1,   23.3,     0.0,      0, 0, 0, 0, 0, 0, 0, 0, 0, 0, 0, 0,   0.95,   34.95,    4.66,     6.99,     6.99,     9.32      ],
		[75,     49.0,     0,        24.5,     -6.12,    1.0,      100,    1,   49.0,     0.0,      0, 0, 0, 0, 0, 0, 0, 0, 0, 0, 0, 0,   0.95,   73.5,     9.8,      14.7,     14.7,     19.6      ],
		[79,     750.0,    0,        375.0,    -93.75,   1.0,      100,    1,   750.0,    0.0,      0, 0, 0, 0, 0, 0, 0, 0, 0, 0, 0, 0,   0.95,   1125.0,   150.0,    225.0,    225.0,    300.0     ],
		[79,     18.7,     0,        9.35,     -2.34,    1.0,      100,    1,   18.7,     0.0,      0, 0, 0, 0, 0, 0, 0, 0, 0, 0, 0, 0,   0.95,   28.05,    3.74,     5.61,     5.61,     7.48      ],
		[81,     2835.0,   0,        1417.5,   -354.38,  1.0,      100,    1,   2835.0,   0.0,      0, 0, 0, 0, 0, 0, 0, 0, 0, 0, 0, 0,   0.95,   4252.5,   567.0,    850.5,    850.5,    1134.0    ],
		[81,     0.0,      0,        62.25,    -15.56,   1.0,      100,    1,   124.5,    0.0,      0, 0, 0, 0, 0, 0, 0, 0, 0, 0, 0, 0,   0.95,   186.75,   24.9,     37.35,    37.35,    49.8      ],
		[218,    45.75,    0,        22.88,    -5.72,    1.0,      100,    1,   45.75,    0.0,      0, 0, 0, 0, 0, 0, 0, 0, 0, 0, 0, 1,   0.95,   68.63,    9.15,     13.73,    13.73,    18.3      ],
		[498,    1367.16,  0,        723.6,    -180.9,   1.0,      100,    1,   1447.2,   0.0,      0, 0, 0, 0, 0, 0, 0, 0, 0, 0, 0, 1,   0.95,   2170.8,   289.44,   434.16,   434.16,   578.88    ],
		[8,      30.12,    0,        15.06,    -3.76,    1.0,      100,    1,   30.12,    0.0,      0, 0, 0, 0, 0, 0, 0, 0, 0, 0, 0, 1,   0.95,   45.18,    6.02,     9.04,     9.04,     12.05     ],
		[9,      25.05,    0,        12.53,    -3.13,    1.0,      100,    1,   25.05,    0.0,      0, 0, 0, 0, 0, 0, 0, 0, 0, 0, 0, 1,   0.95,   37.58,    5.01,     7.52,     7.52,     10.02     ],
		[11,     18.28,    0,        9.14,     -2.28,    1.0,      100,    1,   18.28,    0.0,      0, 0, 0, 0, 0, 0, 0, 0, 0, 0, 0, 1,   0.95,   27.41,    3.66,     5.48,     5.48,     7.31      ],
		[17,     5.03,     0,        2.52,     -0.63,    1.0,      100,    1,   5.03,     0.0,      0, 0, 0, 0, 0, 0, 0, 0, 0, 0, 0, 1,   0.95,   7.55,     1.01,     1.51,     1.51,     2.01      ],
		[21,     15.7,     0,        7.85,     -1.96,    1.0,      100,    1,   15.7,     0.0,      0, 0, 0, 0, 0, 0, 0, 0, 0, 0, 0, 1,   0.95,   23.55,    3.14,     4.71,     4.71,     6.28      ],
		[23,     0.0,      0,        17.94,    -4.48,    1.0,      100,    1,   35.88,    0.0,      0, 0, 0, 0, 0, 0, 0, 0, 0, 0, 0, 1,   0.95,   53.82,    7.18,     10.76,    10.76,    14.35     ],
		[25,     73.62,    0,        36.81,    -9.2,     1.0,      100,    1,   73.62,    0.0,      0, 0, 0, 0, 0, 0, 0, 0, 0, 0, 0, 1,   0.95,   110.43,   14.72,    22.09,    22.09,    29.45     ],
		[31,     2.38,     0,        1.19,     -0.3,     1.0,      100,    1,   2.38,     0.0,      0, 0, 0, 0, 0, 0, 0, 0, 0, 0, 0, 1,   0.95,   3.57,     0.48,     0.71,     0.71,     0.95      ],
		[33,     1.29,     0,        0.65,     -0.16,    1.0,      100,    1,   1.29,     0.0,      0, 0, 0, 0, 0, 0, 0, 0, 0, 0, 0, 1,   0.95,   1.94,     0.26,     0.39,     0.39,     0.52      ],
		[38,     0.33,     0,        0.17,     -0.04,    1.0,      100,    1,   0.33,     0.0,      0, 0, 0, 0, 0, 0, 0, 0, 0, 0, 0, 1,   0.95,   0.5,      0.07,     0.1,      0.1,      0.13      ],
		[39,     76.9,     0,        38.45,    -9.61,    1.0,      100,    1,   76.9,     0.0,      0, 0, 0, 0, 0, 0, 0, 0, 0, 0, 0, 1,   0.95,   115.36,   15.38,    23.07,    23.07,    30.76     ],
		[40,     144.34,   0,        72.17,    -18.04,   1.0,      100,    1,   144.34,   0.0,      0, 0, 0, 0, 0, 0, 0, 0, 0, 0, 0, 1,   0.95,   216.51,   28.87,    43.3,     43.3,     57.73     ],
		[41,     169.2,    0,        84.6,     -21.15,   1.0,      100,    1,   169.2,    0.0,      0, 0, 0, 0, 0, 0, 0, 0, 0, 0, 0, 1,   0.95,   253.8,    33.84,    50.76,    50.76,    67.68     ],
		[43,     63.75,    0,        31.88,    -7.97,    1.0,      100,    1,   63.75,    0.0,      0, 0, 0, 0, 0, 0, 0, 0, 0, 0, 0, 1,   0.95,   95.63,    12.75,    19.13,    19.13,    25.5      ],
		[44,     0.64,     0,        0.32,     -0.08,    1.0,      100,    1,   0.64,     0.0,      0, 0, 0, 0, 0, 0, 0, 0, 0, 0, 0, 1,   0.95,   0.95,     0.13,     0.19,     0.19,     0.25      ],
		[45,     13.23,    0,        6.62,     -1.65,    1.0,      100,    1,   13.23,    0.0,      0, 0, 0, 0, 0, 0, 0, 0, 0, 0, 0, 1,   0.95,   19.85,    2.65,     3.97,     3.97,     5.29      ],
		[47,     0.24,     0,        0.12,     -0.03,    1.0,      100,    1,   0.24,     0.0,      0, 0, 0, 0, 0, 0, 0, 0, 0, 0, 0, 1,   0.95,   0.36,     0.05,     0.07,     0.07,     0.1       ],
		[48,     0.65,     0,        0.32,     -0.08,    1.0,      100,    1,   0.65,     0.0,      0, 0, 0, 0, 0, 0, 0, 0, 0, 0, 0, 1,   0.95,   0.97,     0.13,     0.19,     0.19,     0.26      ],
		[49,     21.25,    0,        10.62,    -2.66,    1.0,      100,    1,   21.25,    0.0,      0, 0, 0, 0, 0, 0, 0, 0, 0, 0, 0, 1,   0.95,   31.87,    4.25,     6.37,     6.37,     8.5       ],
		[65,     0.71,     0,        0.36,     -0.09,    1.0,      100,    1,   0.71,     0.0,      0, 0, 0, 0, 0, 0, 0, 0, 0, 0, 0, 1,   0.95,   1.07,     0.14,     0.21,     0.21,     0.28      ],
		[71,     45.73,    0,        22.87,    -5.72,    1.0,      100,    1,   45.73,    0.0,      0, 0, 0, 0, 0, 0, 0, 0, 0, 0, 0, 1,   0.95,   68.6,     9.15,     13.72,    13.72,    18.29     ],
		[72,     33.01,    0,        16.51,    -4.13,    1.0,      100,    1,   33.01,    0.0,      0, 0, 0, 0, 0, 0, 0, 0, 0, 0, 0, 1,   0.95,   49.52,    6.6,      9.9,      9.9,      13.2      ],
		[73,     51.23,    0,        25.62,    -6.4,     1.0,      100,    1,   51.23,    0.0,      0, 0, 0, 0, 0, 0, 0, 0, 0, 0, 0, 1,   0.95,   76.85,    10.25,    15.37,    15.37,    20.49     ],
		[75,     35.27,    0,        17.64,    -4.41,    1.0,      100,    1,   35.27,    0.0,      0, 0, 0, 0, 0, 0, 0, 0, 0, 0, 0, 1,   0.95,   52.91,    7.05,     10.58,    10.58,    14.11     ],
		[79,     4.41,     0,        2.21,     -0.55,    1.0,      100,    1,   4.41,     0.0,      0, 0, 0, 0, 0, 0, 0, 0, 0, 0, 0, 1,   0.95,   6.62,     0.88,     1.32,     1.32,     1.76      ],
		[80,     1.46,     0,        0.73,     -0.18,    1.0,      100,    1,   1.46,     0.0,      0, 0, 0, 0, 0, 0, 0, 0, 0, 0, 0, 1,   0.95,   2.18,     0.29,     0.44,     0.44,     0.58      ],
		[81,     22.81,    0,        11.4,     -2.85,    1.0,      100,    1,   22.81,    0.0,      0, 0, 0, 0, 0, 0, 0, 0, 0, 0, 0, 1,   0.95,   34.21,    4.56,     6.84,     6.84,     9.12      ],
		[98,     44.74,    0,        22.37,    -5.59,    1.0,      100,    1,   44.74,    0.0,      0, 0, 0, 0, 0, 0, 0, 0, 0, 0, 0, 1,   0.95,   67.1,     8.95,     13.42,    13.42,    17.89     ],
		[101,    103.07,   0,        51.53,    -12.88,   1.0,      100,    1,   103.07,   0.0,      0, 0, 0, 0, 0, 0, 0, 0, 0, 0, 0, 1,   0.95,   154.6,    20.61,    30.92,    30.92,    41.23     ],
		[102,    96.72,    0,        48.36,    -12.09,   1.0,      100,    1,   96.72,    0.0,      0, 0, 0, 0, 0, 0, 0, 0, 0, 0, 0, 1,   0.95,   145.08,   19.34,    29.02,    29.02,    38.69     ],
		[177,    111.67,   0,        55.83,    -13.96,   1.0,      100,    1,   111.67,   0.0,      0, 0, 0, 0, 0, 0, 0, 0, 0, 0, 0, 1,   0.95,   167.5,    22.33,    33.5,     33.5,     44.67     ],
		[179,    96.65,    0,        48.33,    -12.08,   1.0,      100,    1,   96.65,    0.0,      0, 0, 0, 0, 0, 0, 0, 0, 0, 0, 0, 1,   0.95,   144.98,   19.33,    29.0,     29.0,     38.66     ],
		[180,    34.53,    0,        17.26,    -4.32,    1.0,      100,    1,   34.53,    0.0,      0, 0, 0, 0, 0, 0, 0, 0, 0, 0, 0, 1,   0.95,   51.79,    6.91,     10.36,    10.36,    13.81     ],
		[181,    82.39,    0,        41.19,    -10.3,    1.0,      100,    1,   82.39,    0.0,      0, 0, 0, 0, 0, 0, 0, 0, 0, 0, 0, 1,   0.95,   123.58,   16.48,    24.72,    24.72,    32.95     ],
		[182,    9.55,     0,        4.78,     -1.19,    1.0,      100,    1,   9.55,     0.0,      0, 0, 0, 0, 0, 0, 0, 0, 0, 0, 0, 1,   0.95,   14.33,    1.91,     2.87,     2.87,     3.82      ],
		[183,    30.87,    0,        15.43,    -3.86,    1.0,      100,    1,   30.87,    0.0,      0, 0, 0, 0, 0, 0, 0, 0, 0, 0, 0, 1,   0.95,   46.3,     6.17,     9.26,     9.26,     12.35     ],
		[192,    75.02,    0,        37.51,    -9.38,    1.0,      100,    1,   75.02,    0.0,      0, 0, 0, 0, 0, 0, 0, 0, 0, 0, 0, 1,   0.95,   112.53,   15.0,     22.51,    22.51,    30.01     ],
		[217,    107.67,   0,        53.84,    -13.46,   1.0,      100,    1,   107.67,   0.0,      0, 0, 0, 0, 0, 0, 0, 0, 0, 0, 0, 1,   0.95,   161.51,   21.53,    32.3,     32.3,     43.07     ],
		[218,    54.95,    0,        27.47,    -6.87,    1.0,      100,    1,   54.95,    0.0,      0, 0, 0, 0, 0, 0, 0, 0, 0, 0, 0, 1,   0.95,   82.42,    10.99,    16.48,    16.48,    21.98     ],
		[276,    39.65,    0,        19.83,    -4.96,    1.0,      100,    1,   39.65,    0.0,      0, 0, 0, 0, 0, 0, 0, 0, 0, 0, 0, 1,   0.95,   59.48,    7.93,     11.9,     11.9,     15.86     ],
		[278,    17.25,    0,        8.63,     -2.16,    1.0,      100,    1,   17.25,    0.0,      0, 0, 0, 0, 0, 0, 0, 0, 0, 0, 0, 1,   0.95,   25.88,    3.45,     5.18,     5.18,     6.9       ],
		[288,    0.0,      0,        2.25,     -0.56,    1.0,      100,    1,   4.5,      0.0,      0, 0, 0, 0, 0, 0, 0, 0, 0, 0, 0, 1,   0.95,   6.75,     0.9,      1.35,     1.35,     1.8       ],
		[289,    1.19,     0,        0.6,      -0.15,    1.0,      100,    1,   1.19,     0.0,      0, 0, 0, 0, 0, 0, 0, 0, 0, 0, 0, 1,   0.95,   1.79,     0.24,     0.36,     0.36,     0.48      ],
		[291,    0.82,     0,        0.41,     -0.1,     1.0,      100,    1,   0.82,     0.0,      0, 0, 0, 0, 0, 0, 0, 0, 0, 0, 0, 1,   0.95,   1.24,     0.16,     0.25,     0.25,     0.33      ],
		[292,    0.72,     0,        0.36,     -0.09,    1.0,      100,    1,   0.72,     0.0,      0, 0, 0, 0, 0, 0, 0, 0, 0, 0, 0, 1,   0.95,   1.08,     0.14,     0.22,     0.22,     0.29      ],
		[311,    2.25,     0,        1.12,     -0.28,    1.0,      100,    1,   2.25,     0.0,      0, 0, 0, 0, 0, 0, 0, 0, 0, 0, 0, 1,   0.95,   3.37,     0.45,     0.67,     0.67,     0.9       ],
		[321,    3.74,     0,        1.87,     -0.47,    1.0,      100,    1,   3.74,     0.0,      0, 0, 0, 0, 0, 0, 0, 0, 0, 0, 0, 1,   0.95,   5.6,      0.75,     1.12,     1.12,     1.49      ],
		[322,    0.0,      0,        3.11,     -0.78,    1.0,      100,    1,   6.22,     0.0,      0, 0, 0, 0, 0, 0, 0, 0, 0, 0, 0, 1,   0.95,   9.34,     1.24,     1.87,     1.87,     2.49      ],
		[323,    0.0,      0,        0.35,     -0.09,    1.0,      100,    1,   0.7,      0.0,      0, 0, 0, 0, 0, 0, 0, 0, 0, 0, 0, 1,   0.95,   1.05,     0.14,     0.21,     0.21,     0.28      ],
		[324,    4.28,     0,        2.14,     -0.53,    1.0,      100,    1,   4.28,     0.0,      0, 0, 0, 0, 0, 0, 0, 0, 0, 0, 0, 1,   0.95,   6.42,     0.86,     1.28,     1.28,     1.71      ],
		[325,    12.06,    0,        6.03,     -1.51,    1.0,      100,    1,   12.06,    0.0,      0, 0, 0, 0, 0, 0, 0, 0, 0, 0, 0, 1,   0.95,   18.09,    2.41,     3.62,     3.62,     4.82      ],
		[338,    6.16,     0,        3.08,     -0.77,    1.0,      100,    1,   6.16,     0.0,      0, 0, 0, 0, 0, 0, 0, 0, 0, 0, 0, 1,   0.95,   9.24,     1.23,     1.85,     1.85,     2.46      ],
		[339,    8.49,     0,        4.25,     -1.06,    1.0,      100,    1,   8.49,     0.0,      0, 0, 0, 0, 0, 0, 0, 0, 0, 0, 0, 1,   0.95,   12.74,    1.7,      2.55,     2.55,     3.4       ],
		[340,    1.02,     0,        0.51,     -0.13,    1.0,      100,    1,   1.02,     0.0,      0, 0, 0, 0, 0, 0, 0, 0, 0, 0, 0, 1,   0.95,   1.53,     0.2,      0.31,     0.31,     0.41      ],
		[341,    0.01,     0,        0.0,      -0.0,     1.0,      100,    1,   0.01,     0.0,      0, 0, 0, 0, 0, 0, 0, 0, 0, 0, 0, 1,   0.95,   0.01,     0.0,      0.0,      0.0,      0.0       ],
		[342,    7.58,     0,        3.79,     -0.95,    1.0,      100,    1,   7.58,     0.0,      0, 0, 0, 0, 0, 0, 0, 0, 0, 0, 0, 1,   0.95,   11.36,    1.52,     2.27,     2.27,     3.03      ],
		[343,    1.41,     0,        0.7,      -0.18,    1.0,      100,    1,   1.41,     0.0,      0, 0, 0, 0, 0, 0, 0, 0, 0, 0, 0, 1,   0.95,   2.11,     0.28,     0.42,     0.42,     0.56      ],
		[344,    0.26,     0,        0.13,     -0.03,    1.0,      100,    1,   0.26,     0.0,      0, 0, 0, 0, 0, 0, 0, 0, 0, 0, 0, 1,   0.95,   0.4,      0.05,     0.08,     0.08,     0.11      ],
		[345,    0.45,     0,        0.23,     -0.06,    1.0,      100,    1,   0.45,     0.0,      0, 0, 0, 0, 0, 0, 0, 0, 0, 0, 0, 1,   0.95,   0.68,     0.09,     0.14,     0.14,     0.18      ],
		[346,    0.44,     0,        0.22,     -0.05,    1.0,      100,    1,   0.44,     0.0,      0, 0, 0, 0, 0, 0, 0, 0, 0, 0, 0, 1,   0.95,   0.65,     0.09,     0.13,     0.13,     0.17      ],
		[363,    0.37,     0,        0.18,     -0.05,    1.0,      100,    1,   0.37,     0.0,      0, 0, 0, 0, 0, 0, 0, 0, 0, 0, 0, 1,   0.95,   0.55,     0.07,     0.11,     0.11,     0.15      ],
		[400,    135.98,   0,        67.99,    -17.0,    1.0,      100,    1,   135.98,   0.0,      0, 0, 0, 0, 0, 0, 0, 0, 0, 0, 0, 1,   0.95,   203.97,   27.2,     40.79,    40.79,    54.39     ],
		[422,    2.69,     0,        1.35,     -0.34,    1.0,      100,    1,   2.69,     0.0,      0, 0, 0, 0, 0, 0, 0, 0, 0, 0, 0, 1,   0.95,   4.04,     0.54,     0.81,     0.81,     1.08      ],
		[429,    0.1,      0,        0.05,     -0.01,    1.0,      100,    1,   0.1,      0.0,      0, 0, 0, 0, 0, 0, 0, 0, 0, 0, 0, 1,   0.95,   0.14,     0.02,     0.03,     0.03,     0.04      ],
		[435,    8.23,     0,        4.12,     -1.03,    1.0,      100,    1,   8.23,     0.0,      0, 0, 0, 0, 0, 0, 0, 0, 0, 0, 0, 1,   0.95,   12.35,    1.65,     2.47,     2.47,     3.29      ],
		[436,    1.0,      0,        0.5,      -0.12,    1.0,      100,    1,   1.0,      0.0,      0, 0, 0, 0, 0, 0, 0, 0, 0, 0, 0, 1,   0.95,   1.5,      0.2,      0.3,      0.3,      0.4       ],
		[440,    86.05,    0,        43.02,    -10.76,   1.0,      100,    1,   86.05,    0.0,      0, 0, 0, 0, 0, 0, 0, 0, 0, 0, 0, 1,   0.95,   129.07,   17.21,    25.81,    25.81,    34.42     ],
		[441,    74.56,    0,        37.28,    -9.32,    1.0,      100,    1,   74.56,    0.0,      0, 0, 0, 0, 0, 0, 0, 0, 0, 0, 0, 1,   0.95,   111.84,   14.91,    22.37,    22.37,    29.82     ],
		[492,    65.71,    0,        32.85,    -8.21,    1.0,      100,    1,   65.71,    0.0,      0, 0, 0, 0, 0, 0, 0, 0, 0, 0, 0, 1,   0.95,   98.56,    13.14,    19.71,    19.71,    26.28     ],
		[493,    23.58,    0,        11.79,    -2.95,    1.0,      100,    1,   23.58,    0.0,      0, 0, 0, 0, 0, 0, 0, 0, 0, 0, 0, 1,   0.95,   35.37,    4.72,     7.07,     7.07,     9.43      ],
		[496,    104.27,   0,        52.13,    -13.03,   1.0,      100,    1,   104.27,   0.0,      0, 0, 0, 0, 0, 0, 0, 0, 0, 0, 0, 1,   0.95,   156.4,    20.85,    31.28,    31.28,    41.71     ],
		[497,    5.77,     0,        2.89,     -0.72,    1.0,      100,    1,   5.77,     0.0,      0, 0, 0, 0, 0, 0, 0, 0, 0, 0, 0, 1,   0.95,   8.66,     1.15,     1.73,     1.73,     2.31      ],
		[498,    1080.38,  0,        540.19,   -135.05,  1.0,      100,    1,   1080.38,  0.0,      0, 0, 0, 0, 0, 0, 0, 0, 0, 0, 0, 1,   0.95,   1620.58,  216.08,   324.12,   324.12,   432.15    ],
		[502,    1.55,     0,        0.78,     -0.19,    1.0,      100,    1,   1.55,     0.0,      0, 0, 0, 0, 0, 0, 0, 0, 0, 0, 0, 1,   0.95,   2.33,     0.31,     0.47,     0.47,     0.62      ],
		[503,    47.46,    0,        23.73,    -5.93,    1.0,      100,    1,   47.46,    0.0,      0, 0, 0, 0, 0, 0, 0, 0, 0, 0, 0, 1,   0.95,   71.18,    9.49,     14.24,    14.24,    18.98     ],
		[504,    43.12,    0,        21.56,    -5.39,    1.0,      100,    1,   43.12,    0.0,      0, 0, 0, 0, 0, 0, 0, 0, 0, 0, 0, 1,   0.95,   64.68,    8.62,     12.94,    12.94,    17.25     ],
		[505,    0.07,     0,        0.04,     -0.01,    1.0,      100,    1,   0.07,     0.0,      0, 0, 0, 0, 0, 0, 0, 0, 0, 0, 0, 1,   0.95,   0.11,     0.01,     0.02,     0.02,     0.03      ],
		[511,    37.71,    0,        18.86,    -4.71,    1.0,      100,    1,   37.71,    0.0,      0, 0, 0, 0, 0, 0, 0, 0, 0, 0, 0, 1,   0.95,   56.57,    7.54,     11.31,    11.31,    15.09     ],
		[512,    2.42,     0,        1.21,     -0.3,     1.0,      100,    1,   2.42,     0.0,      0, 0, 0, 0, 0, 0, 0, 0, 0, 0, 0, 1,   0.95,   3.62,     0.48,     0.72,     0.72,     0.97      ],
		[557,    6.51,     0,        3.25,     -0.81,    1.0,      100,    1,   6.51,     0.0,      0, 0, 0, 0, 0, 0, 0, 0, 0, 0, 0, 1,   0.95,   9.76,     1.3,      1.95,     1.95,     2.6       ],
		[558,    13.08,    0,        6.54,     -1.64,    1.0,      100,    1,   13.08,    0.0,      0, 0, 0, 0, 0, 0, 0, 0, 0, 0, 0, 1,   0.95,   19.62,    2.62,     3.92,     3.92,     5.23      ],
		[559,    5.15,     0,        2.58,     -0.64,    1.0,      100,    1,   5.15,     0.0,      0, 0, 0, 0, 0, 0, 0, 0, 0, 0, 0, 1,   0.95,   7.73,     1.03,     1.55,     1.55,     2.06      ],
		[560,    44.44,    0,        22.22,    -5.55,    1.0,      100,    1,   44.44,    0.0,      0, 0, 0, 0, 0, 0, 0, 0, 0, 0, 0, 1,   0.95,   66.66,    8.89,     13.33,    13.33,    17.78     ],
		[569,    0.01,     0,        0.0,      -0.0,     1.0,      100,    1,   0.01,     0.0,      0, 0, 0, 0, 0, 0, 0, 0, 0, 0, 0, 1,   0.95,   0.01,     0.0,      0.0,      0.0,      0.0       ],
		[570,    2.23,     0,        1.12,     -0.28,    1.0,      100,    1,   2.23,     0.0,      0, 0, 0, 0, 0, 0, 0, 0, 0, 0, 0, 1,   0.95,   3.35,     0.45,     0.67,     0.67,     0.89      ],
		[8,      0.0,      0,        0.0,      -0.0,     1.0,      100,    1,   0.0,      0.0,      0, 0, 0, 0, 0, 0, 0, 0, 0, 0, 0, 2,   0.95,   0.0,      0.0,      0.0,      0.0,      0.0       ],
		[9,      0.0,      0,        0.0,      -0.0,     1.0,      100,    1,   0.0,      0.0,      0, 0, 0, 0, 0, 0, 0, 0, 0, 0, 0, 2,   0.95,   0.0,      0.0,      0.0,      0.0,      0.0       ],
		[11,     0.0,      0,        0.0,      -0.0,     1.0,      100,    1,   0.0,      0.0,      0, 0, 0, 0, 0, 0, 0, 0, 0, 0, 0, 2,   0.95,   0.0,      0.0,      0.0,      0.0,      0.0       ],
		[17,     0.0,      0,        0.0,      -0.0,     1.0,      100,    1,   0.0,      0.0,      0, 0, 0, 0, 0, 0, 0, 0, 0, 0, 0, 2,   0.95,   0.0,      0.0,      0.0,      0.0,      0.0       ],
		[21,     0.0,      0,        0.0,      -0.0,     1.0,      100,    1,   0.0,      0.0,      0, 0, 0, 0, 0, 0, 0, 0, 0, 0, 0, 2,   0.95,   0.0,      0.0,      0.0,      0.0,      0.0       ],
		[23,     0.0,      0,        0.0,      -0.0,     1.0,      100,    1,   0.0,      0.0,      0, 0, 0, 0, 0, 0, 0, 0, 0, 0, 0, 2,   0.95,   0.0,      0.0,      0.0,      0.0,      0.0       ],
		[25,     0.0,      0,        0.0,      -0.0,     1.0,      100,    1,   0.0,      0.0,      0, 0, 0, 0, 0, 0, 0, 0, 0, 0, 0, 2,   0.95,   0.0,      0.0,      0.0,      0.0,      0.0       ],
		[31,     0.0,      0,        0.0,      -0.0,     1.0,      100,    1,   0.0,      0.0,      0, 0, 0, 0, 0, 0, 0, 0, 0, 0, 0, 2,   0.95,   0.0,      0.0,      0.0,      0.0,      0.0       ],
		[33,     0.0,      0,        0.0,      -0.0,     1.0,      100,    1,   0.0,      0.0,      0, 0, 0, 0, 0, 0, 0, 0, 0, 0, 0, 2,   0.95,   0.0,      0.0,      0.0,      0.0,      0.0       ],
		[38,     0.0,      0,        0.0,      -0.0,     1.0,      100,    1,   0.0,      0.0,      0, 0, 0, 0, 0, 0, 0, 0, 0, 0, 0, 2,   0.95,   0.0,      0.0,      0.0,      0.0,      0.0       ],
		[39,     0.0,      0,        0.0,      -0.0,     1.0,      100,    1,   0.0,      0.0,      0, 0, 0, 0, 0, 0, 0, 0, 0, 0, 0, 2,   0.95,   0.0,      0.0,      0.0,      0.0,      0.0       ],
		[40,     0.0,      0,        0.0,      -0.0,     1.0,      100,    1,   0.0,      0.0,      0, 0, 0, 0, 0, 0, 0, 0, 0, 0, 0, 2,   0.95,   0.0,      0.0,      0.0,      0.0,      0.0       ],
		[41,     0.0,      0,        0.0,      -0.0,     1.0,      100,    1,   0.0,      0.0,      0, 0, 0, 0, 0, 0, 0, 0, 0, 0, 0, 2,   0.95,   0.0,      0.0,      0.0,      0.0,      0.0       ],
		[43,     0.0,      0,        0.0,      -0.0,     1.0,      100,    1,   0.0,      0.0,      0, 0, 0, 0, 0, 0, 0, 0, 0, 0, 0, 2,   0.95,   0.0,      0.0,      0.0,      0.0,      0.0       ],
		[44,     0.0,      0,        0.0,      -0.0,     1.0,      100,    1,   0.0,      0.0,      0, 0, 0, 0, 0, 0, 0, 0, 0, 0, 0, 2,   0.95,   0.0,      0.0,      0.0,      0.0,      0.0       ],
		[45,     0.0,      0,        0.0,      -0.0,     1.0,      100,    1,   0.0,      0.0,      0, 0, 0, 0, 0, 0, 0, 0, 0, 0, 0, 2,   0.95,   0.0,      0.0,      0.0,      0.0,      0.0       ],
		[47,     0.0,      0,        0.0,      -0.0,     1.0,      100,    1,   0.0,      0.0,      0, 0, 0, 0, 0, 0, 0, 0, 0, 0, 0, 2,   0.95,   0.0,      0.0,      0.0,      0.0,      0.0       ],
		[48,     0.0,      0,        0.0,      -0.0,     1.0,      100,    1,   0.0,      0.0,      0, 0, 0, 0, 0, 0, 0, 0, 0, 0, 0, 2,   0.95,   0.0,      0.0,      0.0,      0.0,      0.0       ],
		[49,     0.0,      0,        0.0,      -0.0,     1.0,      100,    1,   0.0,      0.0,      0, 0, 0, 0, 0, 0, 0, 0, 0, 0, 0, 2,   0.95,   0.0,      0.0,      0.0,      0.0,      0.0       ],
		[65,     0.0,      0,        0.0,      -0.0,     1.0,      100,    1,   0.0,      0.0,      0, 0, 0, 0, 0, 0, 0, 0, 0, 0, 0, 2,   0.95,   0.0,      0.0,      0.0,      0.0,      0.0       ],
...
	])
	ppc["branch"] = array([
		[8,      9,      0.00024379,    0.00243793,    0.35006327,    2395,   0, 0, 0,      0, 1, -30,    30,     0.1     ],
		[492,    11,     0.0045562,     0.01822479,    0.04820045,    346,    0, 0, 0,      0, 1, -30,    30,     0.1     ],
		[11,     493,    0.00757174,    0.03028694,    0.0801021,     346,    0, 0, 0,      0, 1, -30,    30,     0.1     ],
		[492,    493,    0.01130413,    0.04521653,    0.11958747,    346,    0, 0, 0,      0, 1, -30,    30,     0.1     ],
		[17,     18,     0.00462352,    0.04623523,    0.9335989,     898,    0, 0, 0,      0, 1, -30,    30,     0.1     ],
		[17,     12,     0.0005602,     0.00560203,    0.1131183,     898,    0, 0, 0,      0, 1, -30,    30,     0.1     ],
		[20,     21,     0.00108334,    0.01083345,    0.09722357,    598,    0, 0, 0,      0, 1, -30,    30,     0.1     ],
		[20,     22,     0.00099339,    0.00993386,    0.3566014,     1197,   0, 0, 0,      0, 1, -30,    30,     0.1     ],
		[497,    23,     0.0005476,     0.00219041,    0.00579315,    346,    0, 0, 0,      0, 1, -30,    30,     0.1     ],
		[25,     22,     0.00035578,    0.00355783,    0.03192931,    598,    0, 0, 0,      0, 1, -30,    30,     0.1     ],
		[8,      21,     0.00098947,    0.00989474,    0.0887992,     598,    0, 0, 0,      0, 1, -30,    30,     0.1     ],
		[31,     32,     0.00299776,    0.02997761,    0.60531903,    898,    0, 0, 0,      0, 1, -30,    30,     0.1     ],
		[32,     33,     0.00167622,    0.01676223,    0.33846928,    898,    0, 0, 0,      0, 1, -30,    30,     0.1     ],
		[37,     10,     0.00240464,    0.0240464,     0.48555384,    898,    0, 0, 0,      0, 1, -30,    30,     0.1     ],
		[10,     38,     0.00068488,    0.0068488,     0.13829351,    898,    0, 0, 0,      0, 1, -30,    30,     0.1     ],
		[37,     38,     0.00143783,    0.01437835,    1.16133176,    1796,   0, 0, 0,      0, 1, -30,    30,     0.1     ],
		[39,     40,     0.00452163,    0.0452163,     0.91302431,    898,    0, 0, 0,      0, 1, -30,    30,     0.1     ],
		[39,     41,     0.0017467,     0.01746699,    0.35269996,    898,    0, 0, 0,      0, 1, -30,    30,     0.1     ],
		[42,     41,     0.00311454,    0.03114543,    0.6289001,     898,    0, 0, 0,      0, 1, -30,    30,     0.1     ],
		[18,     42,     0.00343975,    0.03439751,    0.69456727,    898,    0, 0, 0,      0, 1, -30,    30,     0.1     ],
		[492,    43,     0.00910612,    0.03642446,    0.09633445,    346,    0, 0, 0,      0, 1, -30,    30,     0.1     ],
		[492,    43,     0.00909587,    0.03638347,    0.09622603,    346,    0, 0, 0,      0, 1, -30,    30,     0.1     ],
		[44,     45,     0.00640579,    0.02562314,    0.0677674,     346,    0, 0, 0,      0, 1, -30,    30,     0.1     ],
		[44,     505,    0.00151537,    0.00606149,    0.01603126,    346,    0, 0, 0,      0, 1, -30,    30,     0.1     ],
		[46,     12,     0.00029449,    0.00294494,    0.1057163,     1197,   0, 0, 0,      0, 1, -30,    30,     0.1     ],
		[46,     12,     0.00029482,    0.00294823,    0.10583438,    1197,   0, 0, 0,      0, 1, -30,    30,     0.1     ],
		[47,     48,     0.00053442,    0.00534418,    0.01199019,    299,    0, 0, 0,      0, 1, -30,    30,     0.1     ],
		[31,     33,     0.0013476,     0.01347599,    0.27211226,    898,    0, 0, 0,      0, 1, -30,    30,     0.1     ],
		[71,     72,     0.00088786,    0.00887864,    0.31872128,    1197,   0, 0, 0,      0, 1, -30,    30,     0.1     ],
		[73,     74,     0.00125295,    0.01252955,    0.25300129,    898,    0, 0, 0,      0, 1, -30,    30,     0.1     ],
		[37,     75,     0.00274591,    0.02745914,    0.5544652,     898,    0, 0, 0,      0, 1, -30,    30,     0.1     ],
		[72,     75,     0.00066887,    0.00668871,    0.24010838,    1197,   0, 0, 0,      0, 1, -30,    30,     0.1     ],
		[37,     72,     0.00362221,    0.03622207,    0.73140949,    898,    0, 0, 0,      0, 1, -30,    30,     0.1     ],
		[73,     72,     0.00254751,    0.02547507,    0.51440208,    898,    0, 0, 0,      0, 1, -30,    30,     0.1     ],
		[18,     40,     0.00130277,    0.0130277,     0.26306019,    898,    0, 0, 0,      0, 1, -30,    30,     0.1     ],
		[492,    45,     0.00771758,    0.0308703,     0.18370115,    520,    0, 0, 0,      0, 1, -30,    30,     0.1     ],
		[10,     74,     0.00301674,    0.03016736,    0.60915055,    898,    0, 0, 0,      0, 1, -30,    30,     0.1     ],
		[45,     511,    0.02050843,    0.08203372,    0.05424015,    173,    0, 0, 0,      0, 1, -30,    30,     0.1     ],
		[78,     32,     0.00134588,    0.0134588,     0.48313778,    1197,   0, 0, 0,      0, 1, -30,    30,     0.1     ],
		[79,     80,     0.00076233,    0.00762327,    0.06841417,    598,    0, 0, 0,      0, 1, -30,    30,     0.1     ],
		[79,     80,     0.00076174,    0.00761738,    0.06836134,    598,    0, 0, 0,      0, 1, -30,    30,     0.1     ],
		[81,     79,     0.00215305,    0.02153047,    0.19322279,    598,    0, 0, 0,      0, 1, -30,    30,     0.1     ],
		[81,     79,     0.00215357,    0.02153566,    0.1932694,     598,    0, 0, 0,      0, 1, -30,    30,     0.1     ],
		[42,     98,     0.00061861,    0.00618611,    0.22206638,    1197,   0, 0, 0,      0, 1, -30,    30,     0.1     ],
		[42,     98,     0.00061835,    0.00618352,    0.22197315,    1197,   0, 0, 0,      0, 1, -30,    30,     0.1     ],
		[42,     101,    0.00081653,    0.00816534,    0.29311568,    1197,   0, 0, 0,      0, 1, -30,    30,     0.1     ],
		[102,    42,     0.0012403,     0.01240305,    0.44523901,    1197,   0, 0, 0,      0, 1, -30,    30,     0.1     ],
		[37,     39,     0.00065102,    0.00651021,    0.23370076,    1197,   0, 0, 0,      0, 1, -30,    30,     0.1     ],
		[177,    496,    0.00932496,    0.03729983,    0.09864961,    346,    0, 0, 0,      0, 1, -30,    30,     0.1     ],
		[177,    496,    0.00931603,    0.03726413,    0.09855518,    346,    0, 0, 0,      0, 1, -30,    30,     0.1     ],
		[179,    493,    0.01426992,    0.05707967,    0.15096279,    346,    0, 0, 0,      0, 1, -30,    30,     0.1     ],
		[180,    181,    0.01025686,    0.04102744,    0.10850827,    346,    0, 0, 0,      0, 1, -30,    30,     0.1     ],
		[182,    180,    0.00433818,    0.01735273,    0.04589403,    346,    0, 0, 0,      0, 1, -30,    30,     0.1     ],
		[179,    181,    0.00489306,    0.01957223,    0.05176412,    346,    0, 0, 0,      0, 1, -30,    30,     0.1     ],
		[180,    493,    0.0166914,     0.06676562,    0.17657993,    346,    0, 0, 0,      0, 1, -30,    30,     0.1     ],
		[183,    30,     0.00049645,    0.00496451,    0.17821369,    1197,   0, 0, 0,      0, 1, -30,    30,     0.1     ],
		[183,    21,     0.00025687,    0.00256873,    0.36884485,    2395,   0, 0, 0,      0, 1, -30,    30,     0.1     ],
		[183,    21,     0.00051295,    0.0051295,     0.18413654,    1197,   0, 0, 0,      0, 1, -30,    30,     0.1     ],
		[183,    30,     0.00049609,    0.00496087,    0.17808317,    1197,   0, 0, 0,      0, 1, -30,    30,     0.1     ],
		[504,    192,    0.00015355,    0.00061421,    0.00162446,    346,    0, 0, 0,      0, 1, -30,    30,     0.1     ],
		[504,    192,    0.00015421,    0.00061686,    0.00163145,    346,    0, 0, 0,      0, 1, -30,    30,     0.1     ],
		[217,    98,     0.00012787,    0.00127874,    0.04590362,    1197,   0, 0, 0,      0, 1, -30,    30,     0.1     ],
		[504,    218,    0.00687025,    0.02748099,    0.07268099,    346,    0, 0, 0,      0, 1, -30,    30,     0.1     ],
		[177,    504,    0.01763702,    0.0705481,     0.18658373,    346,    0, 0, 0,      0, 1, -30,    30,     0.1     ],
		[37,     39,     0.00086777,    0.00867775,    0.1752243,     898,    0, 0, 0,      0, 1, -30,    30,     0.1     ],
		[20,     22,     0.00099413,    0.00994131,    0.35686864,    1197,   0, 0, 0,      0, 1, -30,    30,     0.1     ],
		[20,     21,     0.00108314,    0.01083137,    0.09720492,    598,    0, 0, 0,      0, 1, -30,    30,     0.1     ],
		[503,    276,    0.00335322,    0.01341289,    0.03547406,    346,    0, 0, 0,      0, 1, -30,    30,     0.1     ],
		[503,    276,    0.00335372,    0.01341488,    0.03547931,    346,    0, 0, 0,      0, 1, -30,    30,     0.1     ],
		[503,    504,    0.03215471,    0.12861884,    0.34016769,    346,    0, 0, 0,      0, 1, -30,    30,     0.1     ],
		[503,    504,    0.03216364,    0.12865455,    0.34026211,    346,    0, 0, 0,      0, 1, -30,    30,     0.1     ],
...